/*--------------------------------*- C++ -*----------------------------------*\
| =========                 |                                                 |
| \\      /  F ield         | OpenFOAM: The Open Source CFD Toolbox           |
|  \\    /   O peration     | Version:  v1812                                 |
|   \\  /    A nd           | Web:      www.OpenFOAM.com                      |
|    \\/     M anipulation  |                                                 |
\*---------------------------------------------------------------------------*/
FoamFile
{
    version     2.0;
    format      ascii;
    class       dictionary;
    object      blockMeshDict;
}
// * * * * * * * * * * * * * * * * * * * * * * * * * * * * * * * * * * * * * //

scale   1;

vertices
(


    (0 0 -0.05)
    (1 0 -0.05)
    (1 0.5 -0.05)
    (0 0.5 -0.05)
    (3 0.5 -0.05)
    (3 1 -0.05)
    (1 1 -0.05)
    (3 0 -0.05)
    (0 0 0.05)
    (1 0 0.05)
    (1 0.5 0.05)
    (0 0.5 0.05)
    (3 0.5 0.05)
    (3 1 0.05)
    (1 1 0.05)
    (3 0 0.05)


);

blocks
(
    hex (0 1 2 3 8 9 10 11) (100 50 1) simpleGrading (1 1 1)
    hex (2 4 5 6 10 12 13 14) (200 50 1) simpleGrading (1 1 1)
    hex (1 7 4 2 9 15 12 10) (200 50 1) simpleGrading (1 1 1)

);

edges
(
);

boundary
(
    inlet
    {
        type patch;
        faces
        (
            (0 3 11 8)
        );
    }
    outlet
    {
        type patch;
        faces
        (
            (4 7 15 12)  
        );
    }
    bottom
    {
        type symmetryPlane;
        faces
        (
            (1 0 8 9)
            (7 1 9 15) 
        );
    }
    topWall
    {
        type wall; //patch; //wall;
        faces
        (
	    (5 4 12 13)
            (6 5 13 14)
        );
    }
    obstacle
    {
        type wall;
        faces
        (
            (3 2 10 11)
            (2 6 14 10)
        );
    }
);

mergePatchPairs
(
);

// ************************************************************************* //
